%chk=D:\Chem\?????\C2H6(D3).chk
# hf/3-21g geom=connectivity

Title Card Required

0 1
 C                  0.23405761   -1.56267319    1.35353386
 H                  0.29145519   -2.62048510    1.20306968
 H                  0.83643452   -1.28881663    2.19439333
 H                 -0.78238974   -1.28311647    1.53679003
 C                  0.74739983   -0.83671691    0.09612890
 H                  0.39088657   -1.34122883   -0.77752208
 H                  0.39058584    0.17203666    0.09603117
 H                  1.81739981   -0.83656060    0.09622647

 1 2 1.0 3 1.0 4 1.0 5 1.0
 2
 3
 4
 5 6 1.0 7 1.0 8 1.0
 6
 7
 8

