%chk=D:\Chem\?????\c60.chk
# hf/3-21g geom=connectivity

Title Card Required

0 1
 C                 -1.32758615   -1.82758618    0.00000000
 C                  0.13630285   -1.82758618    0.00000000
 C                  0.82859185   -0.62838818    0.00000000
 C                  0.09660985    0.63936982   -0.00001900
 C                 -1.28805815    0.63933782    0.00000500
 C                 -2.01996415   -0.62845718    0.00002100
 C                 -1.77996615   -2.93397118   -0.84514300
 C                 -0.59568015   -3.61772318   -1.36751300
 C                  0.58867985   -2.93393118   -0.84518700
 C                  1.70885085   -2.78123018   -1.64467700
 C                  2.01284685   -0.46696518   -0.84525000
 C                  0.82849585    1.58429382   -0.84526500
 C                  0.13609285    2.47807182   -1.64470200
 C                 -1.32780015    2.47804882   -1.64464800
 C                 -2.02006615    1.58424482   -0.84515400
 C                 -3.20438815    0.90043782   -1.36745400
 C                 -3.20432615   -0.46707918   -0.84510200
 C                 -3.63223215   -1.51357918   -1.64450700
 C                 -2.90023515   -2.78133818   -1.64452900
 C                 -0.59573215   -4.11182818   -2.66101900
 C                 -1.78005815   -3.95046018   -3.50614400
 C                 -2.90027215   -3.30370218   -3.01203600
 C                 -3.63228615   -2.35879418   -3.85720300
 C                 -4.08465615   -1.25244218   -3.01201000
 C                 -4.08470815    0.04107582   -3.50610800
 C                 -3.63234215    1.14745082   -2.66095700
 C                 -2.90045715    2.09241382   -3.50619100
 C                 -1.78023015    2.73921682   -3.01217300
 C                  2.01278585    0.90056882   -1.36763700
 C                  0.58834985    1.72275382   -5.67325800
 C                  1.70861985    1.57013182   -4.87388600
 C                  2.44059285    0.30238082   -4.87388000
 C                  2.01269085   -0.74411418   -5.67330600
 C                  0.82836085   -0.58273518   -6.51843700
 C                 -1.32792215    0.61636982   -6.51837200
 C                 -1.78029115    1.72272882   -5.67318700
 C                 -0.59598215    2.40652982   -5.15088600
 C                 -0.59594515    2.90062782   -3.85737800
 C                  0.58841385    2.73923282   -3.01221300
 C                  1.70863985    2.09249582   -3.50632700
 C                  2.89298785    0.04123082   -3.50637300
 C                  2.89304485   -1.25225918   -3.01226300
 C                  2.44065185   -2.35866018   -3.85740200
 C                  2.01272385   -2.11163918   -5.15092200
 C                  0.82843985   -2.79543518   -5.67323000
 C                  0.09643785   -1.85053518   -6.51838300
 C                 -1.28823215   -1.85055118   -6.51832700
 C                 -2.02021915   -0.58280118   -6.51833200
 C                 -2.90049215    1.57003582   -4.87370400
 C                 -3.63239115    0.30224282   -4.87365800
 C                 -3.20450615   -0.74423318   -5.67310300
 C                 -3.20445115   -2.11176118   -5.15073900
 C                 -2.02012415   -2.79550418   -5.67312600
 C                 -1.32773615   -3.68928318   -4.87371500
 C                  0.13615685   -3.68925718   -4.87374700
 C                  0.58857185   -3.95038918   -3.50626500
 C                  1.70879285   -3.30359018   -3.01222400
 C                  2.44061485    1.14761282   -2.66118400
 C                  2.44072985   -1.51342918   -1.64469900
 C                  0.13598585    0.61640782   -6.51840400

 1 2 1.0 6 2.0 7 1.0
 2 3 2.0 9 1.0
 3 4 1.0 11 1.0
 4 5 2.0 12 1.0
 5 6 1.0 15 1.0
 6 17 1.0
 7 8 1.0 19 2.0
 8 9 1.0 20 2.0
 9 10 2.0
 10 57 1.0 59 1.0
 11 29 1.0 59 2.0
 12 13 2.0 29 1.0
 13 14 1.0 39 1.0
 14 15 2.0 28 1.0
 15 16 1.0
 16 17 1.0 26 2.0
 17 18 2.0
 18 19 1.0 24 1.0
 19 22 1.0
 20 21 1.0 56 1.0
 21 22 2.0 54 1.0
 22 23 1.0
 23 24 1.0 52 2.0
 24 25 2.0
 25 26 1.0 50 1.0
 26 27 1.0
 27 28 2.0 49 1.0
 28 38 1.0
 29 58 2.0
 30 31 2.0 37 1.0 60 1.0
 31 32 1.0 40 1.0
 32 33 2.0 41 1.0
 33 34 1.0 44 1.0
 34 46 1.0 60 2.0
 35 36 1.0 48 2.0 60 1.0
 36 37 1.0 49 2.0
 37 38 2.0
 38 39 1.0
 39 40 2.0
 40 58 1.0
 41 42 2.0 58 1.0
 42 43 1.0 59 1.0
 43 44 2.0 57 1.0
 44 45 1.0
 45 46 1.0 55 2.0
 46 47 2.0
 47 48 1.0 53 1.0
 48 51 1.0
 49 50 1.0
 50 51 2.0
 51 52 1.0
 52 53 1.0
 53 54 2.0
 54 55 1.0
 55 56 1.0
 56 57 2.0
 57
 58
 59
 60

