%chk=D:\Chem\?????\Fe(BH2)6.chk
# hf/3-21g geom=connectivity

Title Card Required

0 1
 Fe                 0.77255123   -0.28906519    0.63476945
 B                 -1.26744877   -0.28906519    0.63476945
 H                 -1.85744877   -0.28906519   -0.38714053
 H                 -1.85744877   -0.28906519    1.65667942
 B                  2.81255123   -0.28906519    0.63476945
 H                  3.40255123   -0.28906519   -0.38714053
 H                  3.40255123   -0.28906519    1.65667942
 B                  0.77255123   -0.28906519   -1.40523055
 H                  0.77255123    0.73284478   -1.99523055
 H                  0.77255123   -1.31097517   -1.99523055
 B                  0.77255123   -0.28906519    2.67476945
 H                  0.77255123   -1.31097517    3.26476945
 H                  0.77255123    0.73284478    3.26476945
 B                  0.77255123    1.75093481    0.63476945
 H                 -0.24935875    2.34093481    0.63476945
 H                  1.79446120    2.34093481    0.63476945
 B                  0.77255123   -2.32906519    0.63476945
 H                  1.79446120   -2.91906519    0.63476945
 H                 -0.24935875   -2.91906519    0.63476945

 1 2 1.0 5 1.0 8 1.0 11 1.0 14 1.0 17 1.0
 2 3 1.0 4 1.0
 3
 4
 5 6 1.0 7 1.0
 6
 7
 8 9 1.0 10 1.0
 9
 10
 11 12 1.0 13 1.0
 12
 13
 14 15 1.0 16 1.0
 15
 16
 17 18 1.0 19 1.0
 18
 19

